Circuit: * C:\Users\Konrad\Documents\GitHub\MPPT\LTspice_symulacja\Draft1.asc

Direct Newton iteration for .op point succeeded.

Date: Mon Aug 23 10:50:12 2021
Total elapsed time: 0.061 seconds.

tnom = 27
temp = 27
method = modified trap
totiter = 2389
traniter = 2385
tranpoints = 1157
accept = 1132
rejected = 25
matrix size = 5
fillins = 0
solver = Normal
Matrix Compiler1:       7 opcodes  0.1/[0.1]/0.1
Matrix Compiler2: 301 bytes object code size  0.1/0.1/[0.1]

